REMARK  7 active torsions:
REMARK  status: ('A' for Active; 'I' for Inactive)
REMARK    1  A    between atoms: C5_3  and  C7_7 
REMARK    2  A    between atoms: C9_11  and  N13_13 
REMARK    3  A    between atoms: N13_13  and  C14_14 
REMARK    4  A    between atoms: C16_18  and  N21_20 
REMARK       I    between atoms: N21_20  and  C22_21 
REMARK    5  A    between atoms: C22_21  and  C23_22 
REMARK    6  A    between atoms: C27_25  and  C46_28 
REMARK    7  A    between atoms: C46_28  and  N48_29 
ROOT
ATOM      1  C14 STI B   1      12.302 100.109  58.246  0.00  0.00     0.057 A 
ATOM      2  C19 STI B   1      11.195 101.040  58.488  0.00  0.00    -0.035 A 
ATOM      3  C18 STI B   1      10.251 100.722  59.524  0.00  0.00     0.011 A 
ATOM      4  C17 STI B   1      10.386  99.520  60.309  0.00  0.00     0.030 A 
ATOM      5  C16 STI B   1      11.456  98.610  60.086  0.00  0.00     0.037 A 
ATOM      6  C15 STI B   1      12.424  98.921  59.032  0.00  0.00     0.060 A 
ATOM      7  C20 STI B   1      10.986 102.351  57.694  0.00  0.00     0.050 C 
ENDROOT
BRANCH   5   8
ATOM      8  N21 STI B   1      11.516  97.436  60.923  0.00  0.00    -0.323 N 
ATOM      9  C22 STI B   1      12.446  96.415  60.910  0.00  0.00     0.256 C 
ATOM     10  O29 STI B   1      13.258  96.231  60.024  0.00  0.00    -0.267 OA
ATOM     11  H21 STI B   1      10.780  97.350  61.609  0.00  0.00     0.169 HD
BRANCH   9  12
ATOM     12  C23 STI B   1      12.472  95.442  62.042  0.00  0.00     0.032 A 
ATOM     13  C25 STI B   1      13.689  94.696  62.364  0.00  0.00     0.017 A 
ATOM     14  C26 STI B   1      13.682  93.749  63.449  0.00  0.00     0.010 A 
ATOM     15  C27 STI B   1      12.463  93.546  64.214  0.00  0.00    -0.033 A 
ATOM     16  C28 STI B   1      11.274  94.301  63.879  0.00  0.00     0.010 A 
ATOM     17  C29 STI B   1      11.272  95.230  62.817  0.00  0.00     0.017 A 
BRANCH  15  18
ATOM     18  C46 STI B   1      12.371  92.542  65.368  0.00  0.00     0.273 C 
BRANCH  18  19
ATOM     19  N48 STI B   1      11.230  91.579  65.364  0.00  0.00    -0.064 N 
ATOM     20  C53 STI B   1      11.214  90.778  64.093  0.00  0.00     0.263 C 
ATOM     21  C52 STI B   1      10.031  89.776  64.067  0.00  0.00     0.262 C 
ATOM     22  N51 STI B   1      10.081  88.858  65.278  0.00  0.00    -0.072 N 
ATOM     23  C54 STI B   1       8.985  87.875  65.306  0.00  0.00     0.269 C 
ATOM     24  C50 STI B   1      10.070  89.659  66.572  0.00  0.00     0.262 C 
ATOM     25  H51 STI B   1      10.951  88.347  65.240  0.00  0.00     0.279 HD
ATOM     26  C49 STI B   1      11.273  90.652  66.574  0.00  0.00     0.263 C 
ATOM     27  H48 STI B   1      10.373  92.111  65.409  0.00  0.00     0.280 HD
ENDBRANCH  18  19
ENDBRANCH  15  18
ENDBRANCH   9  12
ENDBRANCH   5   8
BRANCH   1  28
ATOM     28  N13 STI B   1      13.263 100.362  57.253  0.00  0.00    -0.188 N 
ATOM     29  H13 STI B   1      14.139 100.786  57.522  0.00  0.00     0.184 HD
BRANCH  28  30
ATOM     30  C9  STI B   1      13.053 100.050  55.907  0.00  0.00     0.727 A 
ATOM     31  N10 STI B   1      11.881  99.464  55.456  0.00  0.00    -0.075 NA
ATOM     32  C11 STI B   1      11.704  99.172  54.114  0.00  0.00     0.139 A 
ATOM     33  C12 STI B   1      12.723  99.470  53.173  0.00  0.00     0.053 A 
ATOM     34  C7  STI B   1      13.928 100.078  53.673  0.00  0.00     0.089 A 
ATOM     35  N8  STI B   1      14.046 100.345  55.023  0.00  0.00    -0.062 NA
BRANCH  34  36
ATOM     36  C5  STI B   1      15.089 100.453  52.798  0.00  0.00     0.011 A 
ATOM     37  C6  STI B   1      15.218 100.012  51.414  0.00  0.00     0.017 A 
ATOM     38  C1  STI B   1      16.356 100.406  50.614  0.00  0.00     0.020 A 
ATOM     39  C2  STI B   1      17.356 101.243  51.215  0.00  0.00     0.116 A 
ATOM     40  N3  STI B   1      17.220 101.660  52.543  0.00  0.00    -0.272 NA
ATOM     41  C4  STI B   1      16.138 101.298  53.339  0.00  0.00     0.130 A 
ENDBRANCH  34  36
ENDBRANCH  28  30
ENDBRANCH   1  28
TORSDOF 7
