@<TRIPOS>MOLECULE
1iep_original.pdb
70 74 1 0 0
SMALL
AMBER ff14SB


@<TRIPOS>ATOM
      1 C1         16.3560  100.4060   50.6140 C.ar      1 STI   -0.0431
      2 C6         15.2180  100.0120   51.4140 C.ar      1 STI   -0.0497
      3 C5         15.0890  100.4530   52.7980 C.ar      1 STI    0.0187
      4 C4         16.1380  101.2980   53.3390 C.ar      1 STI    0.0361
      5 N3         17.2200  101.6600   52.5430 N.ar      1 STI   -0.2640
      6 C2         17.3560  101.2430   51.2150 C.ar      1 STI    0.0268
      7 C7         13.9280  100.0780   53.6730 C.ar      1 STI    0.0771
      8 C12        12.7230   99.4700   53.1730 C.ar      1 STI   -0.0171
      9 C11        11.7040   99.1720   54.1140 C.ar      1 STI    0.0328
     10 N10        11.8810   99.4640   55.4560 N.ar      1 STI   -0.2234
     11 C9         13.0530  100.0500   55.9070 C.ar      1 STI    0.2184
     12 N8         14.0460  100.3450   55.0230 N.ar      1 STI   -0.2147
     13 N13        13.2630  100.3620   57.2530 N.pl3     1 STI   -0.2833
     14 C14        12.3020  100.1090   58.2460 C.ar      1 STI    0.0374
     15 C19        11.1950  101.0400   58.4880 C.ar      1 STI   -0.0295
     16 C18        10.2510  100.7220   59.5240 C.ar      1 STI   -0.0556
     17 C17        10.3860   99.5200   60.3090 C.ar      1 STI   -0.0403
     18 C16        11.4560   98.6100   60.0860 C.ar      1 STI    0.0346
     19 C15        12.4240   98.9210   59.0320 C.ar      1 STI   -0.0189
     20 N21        11.5160   97.4360   60.9230 N.am      1 STI   -0.2813
     21 C22        12.4460   96.4150   60.9100 C.2       1 STI    0.2472
     22 C23        12.4720   95.4420   62.0420 C.ar      1 STI    0.0374
     23 C25        13.6890   94.6960   62.3640 C.ar      1 STI   -0.0492
     24 C26        13.6820   93.7490   63.4490 C.ar      1 STI   -0.0530
     25 C27        12.4630   93.5460   64.2140 C.ar      1 STI   -0.0043
     26 C28        11.2740   94.3010   63.8790 C.ar      1 STI   -0.0530
     27 C29        11.2720   95.2300   62.8170 C.ar      1 STI   -0.0492
     28 C46        12.3710   92.5420   65.3680 C.3       1 STI   -0.0079
     29 N48        11.2300   91.5790   65.3640 N.4       1 STI    0.2575
     30 C53        11.2140   90.7780   64.0930 C.3       1 STI    0.0064
     31 C52        10.0310   89.7760   64.0670 C.3       1 STI    0.0057
     32 N51        10.0810   88.8580   65.2780 N.4       1 STI    0.2521
     33 C54         8.9850   87.8750   65.3060 C.3       1 STI   -0.0451
     34 C50        10.0700   89.6590   66.5720 C.3       1 STI    0.0057
     35 C49        11.2730   90.6520   66.5740 C.3       1 STI    0.0064
     36 O29        13.2580   96.2310   60.0240 O.2       1 STI   -0.2716
     37 C20        10.9860  102.3510   57.6940 C.3       1 STI   -0.0379
     38 H1         16.4516  100.0787   49.5892 H         1 STI    0.0639
     39 H6         14.4539   99.3833   50.9812 H         1 STI    0.0631
     40 H4         16.0785  101.6458   54.3597 H         1 STI    0.0847
     41 H2         18.2162  101.5516   50.6395 H         1 STI    0.0840
     42 H12        12.5995   99.2494   52.1230 H         1 STI    0.0662
     43 H11        10.7840   98.7143   53.7815 H         1 STI    0.0842
     44 H13        14.1394  100.7857   57.5222 H         1 STI    0.1559
     45 H18         9.4278  101.3937   59.7176 H         1 STI    0.0627
     46 H17         9.6611   99.3068   61.0807 H         1 STI    0.0643
     47 H15        13.2430   98.2422   58.8455 H         1 STI    0.0663
     48 H21        10.7802   97.3495   61.6095 H         1 STI    0.1560
     49 H25        14.5897   94.8551   61.7897 H         1 STI    0.0631
     50 H26        14.5759   93.1938   63.6924 H         1 STI    0.0628
     51 H28        10.3715   94.1503   64.4528 H         1 STI    0.0628
     52 H29        10.3736   95.7822   62.5838 H         1 STI    0.0631
     53 H462       13.2904   91.9565   65.3634 H         1 STI    0.0869
     54 H463       12.3342   93.1039   66.3013 H         1 STI    0.0869
     55 H48        10.3725   92.1108   65.4086 H         1 STI    0.2010
     56 H532       11.1200   91.4586   63.2468 H         1 STI    0.0870
     57 H533       12.1506   90.2272   64.0061 H         1 STI    0.0870
     58 H522        9.0922   90.3299   64.0759 H         1 STI    0.0870
     59 H523       10.0868   89.1766   63.1583 H         1 STI    0.0870
     60 H51        10.9513   88.3469   65.2404 H         1 STI    0.2003
     61 H502        9.1369   90.2175   66.6464 H         1 STI    0.0870
     62 H503       10.1567   88.9806   67.4207 H         1 STI    0.0870
     63 H492       12.2025   90.0831   66.5521 H         1 STI    0.0870
     64 H493       11.2413   91.2505   67.4844 H         1 STI    0.0870
     65 H541        8.9892   87.2989   64.3807 H         1 STI    0.0777
     66 H542        8.0326   88.3958   65.4051 H         1 STI    0.0777
     67 H543        9.1214   87.2028   66.1531 H         1 STI    0.0777
     68 H201       11.7745  102.4546   56.9486 H         1 STI    0.0280
     69 H202       10.0169  102.3232   57.1958 H         1 STI    0.0280
     70 H203       11.0188  103.1991   58.3779 H         1 STI    0.0280
@<TRIPOS>BOND
     1    1    2 ar
     2    1    6 ar
     3    2    3 ar
     4    3    4 ar
     5    3    7 1
     6    4    5 ar
     7    5    6 ar
     8    7    8 ar
     9    7   12 ar
    10    8    9 ar
    11    9   10 ar
    12   10   11 ar
    13   11   12 ar
    14   11   13 1
    15   13   14 1
    16   14   15 ar
    17   14   19 ar
    18   15   16 ar
    19   15   37 1
    20   16   17 ar
    21   17   18 ar
    22   18   19 ar
    23   18   20 1
    24   20   21 am
    25   21   22 1
    26   21   36 2
    27   22   23 ar
    28   22   27 ar
    29   23   24 ar
    30   24   25 ar
    31   25   26 ar
    32   25   28 1
    33   26   27 ar
    34   28   29 1
    35   29   30 1
    36   29   35 1
    37   30   31 1
    38   31   32 1
    39   32   33 1
    40   32   34 1
    41   34   35 1
    42   38    1 1
    43   39    2 1
    44   40    4 1
    45   41    6 1
    46   42    8 1
    47   43    9 1
    48   44   13 1
    49   45   16 1
    50   46   17 1
    51   47   19 1
    52   48   20 1
    53   49   23 1
    54   50   24 1
    55   51   26 1
    56   52   27 1
    57   53   28 1
    58   54   28 1
    59   55   29 1
    60   56   30 1
    61   57   30 1
    62   58   31 1
    63   59   31 1
    64   60   32 1
    65   61   34 1
    66   62   34 1
    67   63   35 1
    68   64   35 1
    69   65   33 1
    70   66   33 1
    71   67   33 1
    72   68   37 1
    73   69   37 1
    74   70   37 1
@<TRIPOS>SUBSTRUCTURE
     1 STI     1 RESIDUE           4 B     STI     0 ROOT
