MODEL 1
REMARK VINA RESULT:   -13.160      0.000      0.000
REMARK INTER + INTRA:         -19.307
REMARK INTER:                 -18.800
REMARK INTRA:                  -0.507
REMARK UNBOUND:                -0.762
REMARK  7 active torsions:
REMARK  status: ('A' for Active; 'I' for Inactive)
REMARK    1  A    between atoms: C5_3  and  C7_7 
REMARK    2  A    between atoms: C9_11  and  N13_13 
REMARK    3  A    between atoms: N13_13  and  C14_14 
REMARK    4  A    between atoms: C16_18  and  N21_20 
REMARK       I    between atoms: N21_20  and  C22_21 
REMARK    5  A    between atoms: C22_21  and  C23_22 
REMARK    6  A    between atoms: C27_25  and  C46_28 
REMARK    7  A    between atoms: C46_28  and  N48_29 
ROOT
ATOM      1  C14 STI B   1      12.377  99.999  58.122  0.00  0.00     0.057 A 
ATOM      2  C19 STI B   1      11.287 100.956  58.335  0.00  0.00    -0.035 A 
ATOM      3  C18 STI B   1      10.327 100.677  59.368  0.00  0.00     0.011 A 
ATOM      4  C17 STI B   1      10.431  99.487  60.177  0.00  0.00     0.030 A 
ATOM      5  C16 STI B   1      11.485  98.553  59.981  0.00  0.00     0.037 A 
ATOM      6  C15 STI B   1      12.468  98.824  58.931  0.00  0.00     0.060 A 
ATOM      7  C20 STI B   1      11.111 102.256  57.514  0.00  0.00     0.050 C 
ENDROOT
BRANCH   5   8
ATOM      8  N21 STI B   1      11.514  97.394  60.841  0.00  0.00    -0.323 N 
ATOM      9  C22 STI B   1      12.478  96.409  60.927  0.00  0.00     0.256 C 
ATOM     10  O29 STI B   1      13.371  96.243  60.119  0.00  0.00    -0.267 OA
ATOM     11  H21 STI B   1      10.724  97.290  61.462  0.00  0.00     0.169 HD
BRANCH   9  12
ATOM     12  C23 STI B   1      12.440  95.454  62.074  0.00  0.00     0.032 A 
ATOM     13  C25 STI B   1      13.604  94.632  62.407  0.00  0.00     0.017 A 
ATOM     14  C26 STI B   1      13.535  93.705  63.507  0.00  0.00     0.010 A 
ATOM     15  C27 STI B   1      12.306  93.597  64.276  0.00  0.00    -0.033 A 
ATOM     16  C28 STI B   1      11.171  94.426  63.930  0.00  0.00     0.010 A 
ATOM     17  C29 STI B   1      11.230  95.336  62.854  0.00  0.00     0.017 A 
BRANCH  15  18
ATOM     18  C46 STI B   1      12.148  92.620  65.445  0.00  0.00     0.273 C 
BRANCH  18  19
ATOM     19  N48 STI B   1      10.976  91.695  65.427  0.00  0.00    -0.064 N 
ATOM     20  C53 STI B   1      10.952  90.891  64.158  0.00  0.00     0.263 C 
ATOM     21  C52 STI B   1       9.736  89.929  64.117  0.00  0.00     0.262 C 
ATOM     22  N51 STI B   1       9.738  89.014  65.331  0.00  0.00    -0.072 N 
ATOM     23  C54 STI B   1       8.609  88.068  65.346  0.00  0.00     0.269 C 
ATOM     24  C50 STI B   1       9.735  89.819  66.623  0.00  0.00     0.262 C 
ATOM     25  H51 STI B   1      10.591  88.474  65.307  0.00  0.00     0.279 HD
ATOM     26  C49 STI B   1      10.970  90.771  66.640  0.00  0.00     0.263 C 
ATOM     27  H48 STI B   1      10.137  92.256  65.458  0.00  0.00     0.280 HD
ENDBRANCH  18  19
ENDBRANCH  15  18
ENDBRANCH   9  12
ENDBRANCH   5   8
BRANCH   1  28
ATOM     28  N13 STI B   1      13.352 100.214  57.133  0.00  0.00    -0.188 N 
ATOM     29  H13 STI B   1      14.266 100.537  57.415  0.00  0.00     0.184 HD
BRANCH  28  30
ATOM     30  C9  STI B   1      13.105 100.000  55.775  0.00  0.00     0.727 A 
ATOM     31  N10 STI B   1      11.899  99.498  55.310  0.00  0.00    -0.075 NA
ATOM     32  C11 STI B   1      11.686  99.302  53.956  0.00  0.00     0.139 A 
ATOM     33  C12 STI B   1      12.702  99.613  53.016  0.00  0.00     0.053 A 
ATOM     34  C7  STI B   1      13.943 100.131  53.530  0.00  0.00     0.089 A 
ATOM     35  N8  STI B   1      14.096 100.305  54.892  0.00  0.00    -0.062 NA
BRANCH  34  36
ATOM     36  C5  STI B   1      15.106 100.508  52.658  0.00  0.00     0.011 A 
ATOM     37  C6  STI B   1      15.274 100.011  51.297  0.00  0.00     0.017 A 
ATOM     38  C1  STI B   1      16.412 100.409  50.499  0.00  0.00     0.020 A 
ATOM     39  C2  STI B   1      17.372 101.307  51.078  0.00  0.00     0.116 A 
ATOM     40  N3  STI B   1      17.198 101.776  52.384  0.00  0.00    -0.272 NA
ATOM     41  C4  STI B   1      16.115 101.412  53.177  0.00  0.00     0.130 A 
ENDBRANCH  34  36
ENDBRANCH  28  30
ENDBRANCH   1  28
TORSDOF 7
ENDMDL
MODEL 2
REMARK VINA RESULT:   -12.570      1.004      1.569
REMARK INTER + INTRA:         -18.476
REMARK INTER:                 -17.840
REMARK INTRA:                  -0.636
REMARK UNBOUND:                -0.762
REMARK  7 active torsions:
REMARK  status: ('A' for Active; 'I' for Inactive)
REMARK    1  A    between atoms: C5_3  and  C7_7 
REMARK    2  A    between atoms: C9_11  and  N13_13 
REMARK    3  A    between atoms: N13_13  and  C14_14 
REMARK    4  A    between atoms: C16_18  and  N21_20 
REMARK       I    between atoms: N21_20  and  C22_21 
REMARK    5  A    between atoms: C22_21  and  C23_22 
REMARK    6  A    between atoms: C27_25  and  C46_28 
REMARK    7  A    between atoms: C46_28  and  N48_29 
ROOT
ATOM      1  C14 STI B   1      11.725  99.723  57.492  0.00  0.00     0.057 A 
ATOM      2  C19 STI B   1      11.048 100.920  58.003  0.00  0.00    -0.035 A 
ATOM      3  C18 STI B   1      10.523 100.887  59.341  0.00  0.00     0.011 A 
ATOM      4  C17 STI B   1      10.658  99.710  60.163  0.00  0.00     0.030 A 
ATOM      5  C16 STI B   1      11.314  98.544  59.681  0.00  0.00     0.037 A 
ATOM      6  C15 STI B   1      11.852  98.564  58.319  0.00  0.00     0.060 A 
ATOM      7  C20 STI B   1      10.869 102.221  57.186  0.00  0.00     0.050 C 
ENDROOT
BRANCH   5   8
ATOM      8  N21 STI B   1      11.409  97.416  60.575  0.00  0.00    -0.323 N 
ATOM      9  C22 STI B   1      12.442  96.510  60.713  0.00  0.00     0.256 C 
ATOM     10  O29 STI B   1      13.365  96.390  59.931  0.00  0.00    -0.267 OA
ATOM     11  H21 STI B   1      10.613  97.269  61.180  0.00  0.00     0.169 HD
BRANCH   9  12
ATOM     12  C23 STI B   1      12.446  95.587  61.887  0.00  0.00     0.032 A 
ATOM     13  C25 STI B   1      13.656  94.854  62.262  0.00  0.00     0.017 A 
ATOM     14  C26 STI B   1      13.629  93.956  63.387  0.00  0.00     0.010 A 
ATOM     15  C27 STI B   1      12.396  93.788  64.140  0.00  0.00    -0.033 A 
ATOM     16  C28 STI B   1      11.215  94.530  63.752  0.00  0.00     0.010 A 
ATOM     17  C29 STI B   1      11.233  95.411  62.650  0.00  0.00     0.017 A 
BRANCH  15  18
ATOM     18  C46 STI B   1      12.283  92.836  65.335  0.00  0.00     0.273 C 
BRANCH  18  19
ATOM     19  N48 STI B   1      11.127  91.891  65.365  0.00  0.00    -0.064 N 
ATOM     20  C53 STI B   1      11.072  91.077  64.104  0.00  0.00     0.263 C 
ATOM     21  C52 STI B   1       9.873  90.093  64.113  0.00  0.00     0.262 C 
ATOM     22  N51 STI B   1       9.933  89.188  65.334  0.00  0.00    -0.072 N 
ATOM     23  C54 STI B   1       8.823  88.224  65.395  0.00  0.00     0.269 C 
ATOM     24  C50 STI B   1       9.961  90.004  66.618  0.00  0.00     0.262 C 
ATOM     25  H51 STI B   1      10.794  88.663  65.284  0.00  0.00     0.279 HD
ATOM     26  C49 STI B   1      11.180  90.977  66.584  0.00  0.00     0.263 C 
ATOM     27  H48 STI B   1      10.279  92.438  65.421  0.00  0.00     0.280 HD
ENDBRANCH  18  19
ENDBRANCH  15  18
ENDBRANCH   9  12
ENDBRANCH   5   8
BRANCH   1  28
ATOM     28  N13 STI B   1      12.267  99.690  56.196  0.00  0.00    -0.188 N 
ATOM     29  H13 STI B   1      11.653  99.494  55.419  0.00  0.00     0.184 HD
BRANCH  28  30
ATOM     30  C9  STI B   1      13.622  99.918  55.942  0.00  0.00     0.727 A 
ATOM     31  N10 STI B   1      14.570  99.951  56.952  0.00  0.00    -0.075 NA
ATOM     32  C11 STI B   1      15.906 100.175  56.664  0.00  0.00     0.139 A 
ATOM     33  C12 STI B   1      16.329 100.373  55.324  0.00  0.00     0.053 A 
ATOM     34  C7  STI B   1      15.320 100.333  54.299  0.00  0.00     0.089 A 
ATOM     35  N8  STI B   1      14.003 100.106  54.648  0.00  0.00    -0.062 NA
BRANCH  34  36
ATOM     36  C5  STI B   1      15.617 100.521  52.839  0.00  0.00     0.011 A 
ATOM     37  C6  STI B   1      16.665 101.408  52.348  0.00  0.00     0.017 A 
ATOM     38  C1  STI B   1      16.912 101.549  50.930  0.00  0.00     0.020 A 
ATOM     39  C2  STI B   1      16.101 100.794  50.017  0.00  0.00     0.116 A 
ATOM     40  N3  STI B   1      15.100  99.946  50.501  0.00  0.00    -0.272 NA
ATOM     41  C4  STI B   1      14.837  99.788  51.858  0.00  0.00     0.130 A 
ENDBRANCH  34  36
ENDBRANCH  28  30
ENDBRANCH   1  28
TORSDOF 7
ENDMDL
MODEL 3
REMARK VINA RESULT:   -10.792      3.439     12.268
REMARK INTER + INTRA:         -15.970
REMARK INTER:                 -15.441
REMARK INTRA:                  -0.529
REMARK UNBOUND:                -0.762
REMARK  7 active torsions:
REMARK  status: ('A' for Active; 'I' for Inactive)
REMARK    1  A    between atoms: C5_3  and  C7_7 
REMARK    2  A    between atoms: C9_11  and  N13_13 
REMARK    3  A    between atoms: N13_13  and  C14_14 
REMARK    4  A    between atoms: C16_18  and  N21_20 
REMARK       I    between atoms: N21_20  and  C22_21 
REMARK    5  A    between atoms: C22_21  and  C23_22 
REMARK    6  A    between atoms: C27_25  and  C46_28 
REMARK    7  A    between atoms: C46_28  and  N48_29 
ROOT
ATOM      1  C14 STI B   1       9.434  92.939  63.891  0.00  0.00     0.057 A 
ATOM      2  C19 STI B   1      10.451  92.570  64.882  0.00  0.00    -0.035 A 
ATOM      3  C18 STI B   1      11.683  93.309  64.901  0.00  0.00     0.011 A 
ATOM      4  C17 STI B   1      11.918  94.387  63.973  0.00  0.00     0.030 A 
ATOM      5  C16 STI B   1      10.940  94.755  63.008  0.00  0.00     0.037 A 
ATOM      6  C15 STI B   1       9.680  94.010  62.977  0.00  0.00     0.060 A 
ATOM      7  C20 STI B   1      10.271  91.432  65.915  0.00  0.00     0.050 C 
ENDROOT
BRANCH   5   8
ATOM      8  N21 STI B   1      11.258  95.850  62.123  0.00  0.00    -0.323 N 
ATOM      9  C22 STI B   1      12.380  96.025  61.338  0.00  0.00     0.256 C 
ATOM     10  O29 STI B   1      13.401  95.372  61.436  0.00  0.00    -0.267 OA
ATOM     11  H21 STI B   1      10.568  96.586  62.072  0.00  0.00     0.169 HD
BRANCH   9  12
ATOM     12  C23 STI B   1      12.377  97.093  60.295  0.00  0.00     0.032 A 
ATOM     13  C25 STI B   1      11.272  98.048  60.199  0.00  0.00     0.017 A 
ATOM     14  C26 STI B   1      11.284  99.057  59.172  0.00  0.00     0.010 A 
ATOM     15  C27 STI B   1      12.398  99.116  58.240  0.00  0.00    -0.033 A 
ATOM     16  C28 STI B   1      13.482  98.164  58.360  0.00  0.00     0.010 A 
ATOM     17  C29 STI B   1      13.478  97.172  59.363  0.00  0.00     0.017 A 
BRANCH  15  18
ATOM     18  C46 STI B   1      12.473 100.147  57.109  0.00  0.00     0.273 C 
BRANCH  18  19
ATOM     19  N48 STI B   1      13.212  99.767  55.869  0.00  0.00    -0.064 N 
ATOM     20  C53 STI B   1      12.389 100.061  54.647  0.00  0.00     0.263 C 
ATOM     21  C52 STI B   1      13.139  99.667  53.348  0.00  0.00     0.262 C 
ATOM     22  N51 STI B   1      14.483 100.373  53.271  0.00  0.00    -0.072 N 
ATOM     23  C54 STI B   1      15.241 100.044  52.052  0.00  0.00     0.269 C 
ATOM     24  C50 STI B   1      15.336 100.059  54.492  0.00  0.00     0.262 C 
ATOM     25  H51 STI B   1      14.308 101.367  53.265  0.00  0.00     0.279 HD
ATOM     26  C49 STI B   1      14.562 100.472  55.781  0.00  0.00     0.263 C 
ATOM     27  H48 STI B   1      13.382  98.772  55.899  0.00  0.00     0.280 HD
ENDBRANCH  18  19
ENDBRANCH  15  18
ENDBRANCH   9  12
ENDBRANCH   5   8
BRANCH   1  28
ATOM     28  N13 STI B   1       8.205  92.262  63.822  0.00  0.00    -0.188 N 
ATOM     29  H13 STI B   1       7.867  91.784  64.645  0.00  0.00     0.184 HD
BRANCH  28  30
ATOM     30  C9  STI B   1       7.433  92.223  62.658  0.00  0.00     0.727 A 
ATOM     31  N10 STI B   1       6.707  93.316  62.213  0.00  0.00    -0.075 NA
ATOM     32  C11 STI B   1       5.955  93.245  61.053  0.00  0.00     0.139 A 
ATOM     33  C12 STI B   1       5.917  92.047  60.294  0.00  0.00     0.053 A 
ATOM     34  C7  STI B   1       6.682  90.930  60.782  0.00  0.00     0.089 A 
ATOM     35  N8  STI B   1       7.412  91.062  61.947  0.00  0.00    -0.062 NA
BRANCH  34  36
ATOM     36  C5  STI B   1       6.741  89.601  60.085  0.00  0.00     0.011 A 
ATOM     37  C6  STI B   1       7.610  88.513  60.517  0.00  0.00     0.017 A 
ATOM     38  C1  STI B   1       7.625  87.252  59.811  0.00  0.00     0.020 A 
ATOM     39  C2  STI B   1       6.762  87.095  58.675  0.00  0.00     0.116 A 
ATOM     40  N3  STI B   1       5.932  88.146  58.271  0.00  0.00    -0.272 NA
ATOM     41  C4  STI B   1       5.895  89.371  58.928  0.00  0.00     0.130 A 
ENDBRANCH  34  36
ENDBRANCH  28  30
ENDBRANCH   1  28
TORSDOF 7
ENDMDL
MODEL 4
REMARK VINA RESULT:   -10.602      3.029     12.421
REMARK INTER + INTRA:         -15.702
REMARK INTER:                 -14.702
REMARK INTRA:                  -1.000
REMARK UNBOUND:                -0.762
REMARK  7 active torsions:
REMARK  status: ('A' for Active; 'I' for Inactive)
REMARK    1  A    between atoms: C5_3  and  C7_7 
REMARK    2  A    between atoms: C9_11  and  N13_13 
REMARK    3  A    between atoms: N13_13  and  C14_14 
REMARK    4  A    between atoms: C16_18  and  N21_20 
REMARK       I    between atoms: N21_20  and  C22_21 
REMARK    5  A    between atoms: C22_21  and  C23_22 
REMARK    6  A    between atoms: C27_25  and  C46_28 
REMARK    7  A    between atoms: C46_28  and  N48_29 
ROOT
ATOM      1  C14 STI B   1      11.277  94.454  63.542  0.00  0.00     0.057 A 
ATOM      2  C19 STI B   1      12.599  94.150  64.099  0.00  0.00    -0.035 A 
ATOM      3  C18 STI B   1      13.761  94.609  63.388  0.00  0.00     0.011 A 
ATOM      4  C17 STI B   1      13.634  95.351  62.159  0.00  0.00     0.030 A 
ATOM      5  C16 STI B   1      12.358  95.655  61.609  0.00  0.00     0.037 A 
ATOM      6  C15 STI B   1      11.166  95.191  62.322  0.00  0.00     0.060 A 
ATOM      7  C20 STI B   1      12.817  93.365  65.415  0.00  0.00     0.050 C 
ENDROOT
BRANCH   5   8
ATOM      8  N21 STI B   1      12.326  96.408  60.378  0.00  0.00    -0.323 N 
ATOM      9  C22 STI B   1      11.775  97.652  60.143  0.00  0.00     0.256 C 
ATOM     10  O29 STI B   1      11.020  98.228  60.902  0.00  0.00    -0.267 OA
ATOM     11  H21 STI B   1      12.766  95.966  59.583  0.00  0.00     0.169 HD
BRANCH   9  12
ATOM     12  C23 STI B   1      12.096  98.359  58.868  0.00  0.00     0.032 A 
ATOM     13  C25 STI B   1      13.469  98.755  58.553  0.00  0.00     0.017 A 
ATOM     14  C26 STI B   1      13.749  99.454  57.326  0.00  0.00     0.010 A 
ATOM     15  C27 STI B   1      12.662  99.757  56.411  0.00  0.00    -0.033 A 
ATOM     16  C28 STI B   1      11.313  99.349  56.742  0.00  0.00     0.010 A 
ATOM     17  C29 STI B   1      11.030  98.665  57.943  0.00  0.00     0.017 A 
BRANCH  15  18
ATOM     18  C46 STI B   1      12.877 100.515  55.096  0.00  0.00     0.273 C 
BRANCH  18  19
ATOM     19  N48 STI B   1      14.082 100.173  54.284  0.00  0.00    -0.064 N 
ATOM     20  C53 STI B   1      13.724 100.036  52.831  0.00  0.00     0.263 C 
ATOM     21  C52 STI B   1      14.963  99.673  51.972  0.00  0.00     0.262 C 
ATOM     22  N51 STI B   1      16.063 100.706  52.157  0.00  0.00    -0.072 N 
ATOM     23  C54 STI B   1      17.266 100.421  51.358  0.00  0.00     0.269 C 
ATOM     24  C50 STI B   1      16.452 100.833  53.623  0.00  0.00     0.262 C 
ATOM     25  H51 STI B   1      15.699 101.599  51.857  0.00  0.00     0.279 HD
ATOM     26  C49 STI B   1      15.191 101.204  54.462  0.00  0.00     0.263 C 
ATOM     27  H48 STI B   1      14.431  99.281  54.605  0.00  0.00     0.280 HD
ENDBRANCH  18  19
ENDBRANCH  15  18
ENDBRANCH   9  12
ENDBRANCH   5   8
BRANCH   1  28
ATOM     28  N13 STI B   1      10.101  94.041  64.189  0.00  0.00    -0.188 N 
ATOM     29  H13 STI B   1       9.764  94.579  64.974  0.00  0.00     0.184 HD
BRANCH  28  30
ATOM     30  C9  STI B   1       9.379  92.913  63.788  0.00  0.00     0.727 A 
ATOM     31  N10 STI B   1       9.665  91.643  64.264  0.00  0.00    -0.075 NA
ATOM     32  C11 STI B   1       8.927  90.547  63.849  0.00  0.00     0.139 A 
ATOM     33  C12 STI B   1       7.860  90.706  62.927  0.00  0.00     0.053 A 
ATOM     34  C7  STI B   1       7.589  92.037  62.452  0.00  0.00     0.089 A 
ATOM     35  N8  STI B   1       8.361  93.090  62.903  0.00  0.00    -0.062 NA
BRANCH  34  36
ATOM     36  C5  STI B   1       6.492  92.360  61.480  0.00  0.00     0.011 A 
ATOM     37  C6  STI B   1       5.898  93.686  61.361  0.00  0.00     0.017 A 
ATOM     38  C1  STI B   1       4.846  93.944  60.404  0.00  0.00     0.020 A 
ATOM     39  C2  STI B   1       4.400  92.862  59.572  0.00  0.00     0.116 A 
ATOM     40  N3  STI B   1       4.978  91.594  59.695  0.00  0.00    -0.272 NA
ATOM     41  C4  STI B   1       5.991  91.314  60.606  0.00  0.00     0.130 A 
ENDBRANCH  34  36
ENDBRANCH  28  30
ENDBRANCH   1  28
TORSDOF 7
ENDMDL
MODEL 5
REMARK VINA RESULT:   -10.596      2.607     12.437
REMARK INTER + INTRA:         -15.695
REMARK INTER:                 -14.909
REMARK INTRA:                  -0.786
REMARK UNBOUND:                -0.762
REMARK  7 active torsions:
REMARK  status: ('A' for Active; 'I' for Inactive)
REMARK    1  A    between atoms: C5_3  and  C7_7 
REMARK    2  A    between atoms: C9_11  and  N13_13 
REMARK    3  A    between atoms: N13_13  and  C14_14 
REMARK    4  A    between atoms: C16_18  and  N21_20 
REMARK       I    between atoms: N21_20  and  C22_21 
REMARK    5  A    between atoms: C22_21  and  C23_22 
REMARK    6  A    between atoms: C27_25  and  C46_28 
REMARK    7  A    between atoms: C46_28  and  N48_29 
ROOT
ATOM      1  C14 STI B   1      12.523  93.065  64.448  0.00  0.00     0.057 A 
ATOM      2  C19 STI B   1      13.878  92.555  64.683  0.00  0.00    -0.035 A 
ATOM      3  C18 STI B   1      14.938  93.020  63.831  0.00  0.00     0.011 A 
ATOM      4  C17 STI B   1      14.681  93.964  62.773  0.00  0.00     0.030 A 
ATOM      5  C16 STI B   1      13.372  94.468  62.536  0.00  0.00     0.037 A 
ATOM      6  C15 STI B   1      12.282  94.001  63.395  0.00  0.00     0.060 A 
ATOM      7  C20 STI B   1      14.235  91.547  65.801  0.00  0.00     0.050 C 
ENDROOT
BRANCH   5   8
ATOM      8  N21 STI B   1      13.209  95.415  61.459  0.00  0.00    -0.323 N 
ATOM      9  C22 STI B   1      12.173  96.302  61.241  0.00  0.00     0.256 C 
ATOM     10  O29 STI B   1      11.104  96.272  61.820  0.00  0.00    -0.267 OA
ATOM     11  H21 STI B   1      13.950  95.430  60.774  0.00  0.00     0.169 HD
BRANCH   9  12
ATOM     12  C23 STI B   1      12.340  97.376  60.218  0.00  0.00     0.032 A 
ATOM     13  C25 STI B   1      11.410  98.504  60.154  0.00  0.00     0.017 A 
ATOM     14  C26 STI B   1      11.583  99.518  59.145  0.00  0.00     0.010 A 
ATOM     15  C27 STI B   1      12.682  99.408  58.201  0.00  0.00    -0.033 A 
ATOM     16  C28 STI B   1      13.592  98.285  58.289  0.00  0.00     0.010 A 
ATOM     17  C29 STI B   1      13.429  97.287  59.274  0.00  0.00     0.017 A 
BRANCH  15  18
ATOM     18  C46 STI B   1      12.918 100.433  57.087  0.00  0.00     0.273 C 
BRANCH  18  19
ATOM     19  N48 STI B   1      13.537  99.952  55.817  0.00  0.00    -0.064 N 
ATOM     20  C53 STI B   1      12.620 100.195  54.652  0.00  0.00     0.263 C 
ATOM     21  C52 STI B   1      13.243  99.695  53.323  0.00  0.00     0.262 C 
ATOM     22  N51 STI B   1      14.595 100.350  53.086  0.00  0.00    -0.072 N 
ATOM     23  C54 STI B   1      15.235  99.921  51.832  0.00  0.00     0.269 C 
ATOM     24  C50 STI B   1      15.541 100.086  54.249  0.00  0.00     0.262 C 
ATOM     25  H51 STI B   1      14.447 101.347  53.030  0.00  0.00     0.279 HD
ATOM     26  C49 STI B   1      14.893 100.605  55.569  0.00  0.00     0.263 C 
ATOM     27  H48 STI B   1      13.681  98.956  55.898  0.00  0.00     0.280 HD
ENDBRANCH  18  19
ENDBRANCH  15  18
ENDBRANCH   9  12
ENDBRANCH   5   8
BRANCH   1  28
ATOM     28  N13 STI B   1      11.442  92.656  65.247  0.00  0.00    -0.188 N 
ATOM     29  H13 STI B   1      11.407  92.962  66.209  0.00  0.00     0.184 HD
BRANCH  28  30
ATOM     30  C9  STI B   1      10.414  91.843  64.763  0.00  0.00     0.727 A 
ATOM     31  N10 STI B   1      10.469  90.460  64.831  0.00  0.00    -0.075 NA
ATOM     32  C11 STI B   1       9.431  89.683  64.344  0.00  0.00     0.139 A 
ATOM     33  C12 STI B   1       8.287  90.292  63.767  0.00  0.00     0.053 A 
ATOM     34  C7  STI B   1       8.261  91.730  63.711  0.00  0.00     0.089 A 
ATOM     35  N8  STI B   1       9.327  92.451  64.213  0.00  0.00    -0.062 NA
BRANCH  34  36
ATOM     36  C5  STI B   1       7.118  92.514  63.134  0.00  0.00     0.011 A 
ATOM     37  C6  STI B   1       5.897  92.807  63.876  0.00  0.00     0.017 A 
ATOM     38  C1  STI B   1       4.828  93.570  63.273  0.00  0.00     0.020 A 
ATOM     39  C2  STI B   1       4.997  94.034  61.924  0.00  0.00     0.116 A 
ATOM     40  N3  STI B   1       6.173  93.747  61.223  0.00  0.00    -0.272 NA
ATOM     41  C4  STI B   1       7.219  93.015  61.775  0.00  0.00     0.130 A 
ENDBRANCH  34  36
ENDBRANCH  28  30
ENDBRANCH   1  28
TORSDOF 7
ENDMDL
MODEL 6
REMARK VINA RESULT:   -10.521      3.918     12.667
REMARK INTER + INTRA:         -15.589
REMARK INTER:                 -14.659
REMARK INTRA:                  -0.930
REMARK UNBOUND:                -0.762
REMARK  7 active torsions:
REMARK  status: ('A' for Active; 'I' for Inactive)
REMARK    1  A    between atoms: C5_3  and  C7_7 
REMARK    2  A    between atoms: C9_11  and  N13_13 
REMARK    3  A    between atoms: N13_13  and  C14_14 
REMARK    4  A    between atoms: C16_18  and  N21_20 
REMARK       I    between atoms: N21_20  and  C22_21 
REMARK    5  A    between atoms: C22_21  and  C23_22 
REMARK    6  A    between atoms: C27_25  and  C46_28 
REMARK    7  A    between atoms: C46_28  and  N48_29 
ROOT
ATOM      1  C14 STI B   1       9.523  92.732  63.477  0.00  0.00     0.057 A 
ATOM      2  C19 STI B   1      10.197  92.659  64.777  0.00  0.00    -0.035 A 
ATOM      3  C18 STI B   1      11.165  93.672  65.101  0.00  0.00     0.011 A 
ATOM      4  C17 STI B   1      11.467  94.734  64.174  0.00  0.00     0.030 A 
ATOM      5  C16 STI B   1      10.819  94.817  62.911  0.00  0.00     0.037 A 
ATOM      6  C15 STI B   1       9.832  93.791  62.568  0.00  0.00     0.060 A 
ATOM      7  C20 STI B   1       9.924  91.556  65.827  0.00  0.00     0.050 C 
ENDROOT
BRANCH   5   8
ATOM      8  N21 STI B   1      11.178  95.918  62.050  0.00  0.00    -0.323 N 
ATOM      9  C22 STI B   1      12.331  96.091  61.309  0.00  0.00     0.256 C 
ATOM     10  O29 STI B   1      13.343  95.429  61.439  0.00  0.00    -0.267 OA
ATOM     11  H21 STI B   1      10.497  96.660  61.980  0.00  0.00     0.169 HD
BRANCH   9  12
ATOM     12  C23 STI B   1      12.376  97.170  60.278  0.00  0.00     0.032 A 
ATOM     13  C25 STI B   1      11.326  98.187  60.207  0.00  0.00     0.017 A 
ATOM     14  C26 STI B   1      11.383  99.205  59.191  0.00  0.00     0.010 A 
ATOM     15  C27 STI B   1      12.486  99.211  58.244  0.00  0.00    -0.033 A 
ATOM     16  C28 STI B   1      13.515  98.197  58.339  0.00  0.00     0.010 A 
ATOM     17  C29 STI B   1      13.467  97.196  59.332  0.00  0.00     0.017 A 
BRANCH  15  18
ATOM     18  C46 STI B   1      12.605 100.248  57.123  0.00  0.00     0.273 C 
BRANCH  18  19
ATOM     19  N48 STI B   1      13.306  99.841  55.869  0.00  0.00    -0.064 N 
ATOM     20  C53 STI B   1      12.456 100.133  54.665  0.00  0.00     0.263 C 
ATOM     21  C52 STI B   1      13.165  99.710  53.352  0.00  0.00     0.262 C 
ATOM     22  N51 STI B   1      14.518 100.393  53.231  0.00  0.00    -0.072 N 
ATOM     23  C54 STI B   1      15.239 100.037  51.997  0.00  0.00     0.269 C 
ATOM     24  C50 STI B   1      15.398 100.081  54.434  0.00  0.00     0.262 C 
ATOM     25  H51 STI B   1      14.359 101.390  53.217  0.00  0.00     0.279 HD
ATOM     26  C49 STI B   1      14.664 100.523  55.737  0.00  0.00     0.263 C 
ATOM     27  H48 STI B   1      13.461  98.844  55.908  0.00  0.00     0.280 HD
ENDBRANCH  18  19
ENDBRANCH  15  18
ENDBRANCH   9  12
ENDBRANCH   5   8
BRANCH   1  28
ATOM     28  N13 STI B   1       8.562  91.779  63.100  0.00  0.00    -0.188 N 
ATOM     29  H13 STI B   1       8.866  90.836  62.904  0.00  0.00     0.184 HD
BRANCH  28  30
ATOM     30  C9  STI B   1       7.204  92.085  62.986  0.00  0.00     0.727 A 
ATOM     31  N10 STI B   1       6.591  93.044  63.777  0.00  0.00    -0.075 NA
ATOM     32  C11 STI B   1       5.243  93.326  63.635  0.00  0.00     0.139 A 
ATOM     33  C12 STI B   1       4.462  92.636  62.672  0.00  0.00     0.053 A 
ATOM     34  C7  STI B   1       5.127  91.646  61.867  0.00  0.00     0.089 A 
ATOM     35  N8  STI B   1       6.475  91.409  62.055  0.00  0.00    -0.062 NA
BRANCH  34  36
ATOM     36  C5  STI B   1       4.433  90.841  60.807  0.00  0.00     0.011 A 
ATOM     37  C6  STI B   1       4.511  91.160  59.386  0.00  0.00     0.017 A 
ATOM     38  C1  STI B   1       3.825  90.347  58.406  0.00  0.00     0.020 A 
ATOM     39  C2  STI B   1       3.067  89.218  58.865  0.00  0.00     0.116 A 
ATOM     40  N3  STI B   1       3.002  88.922  60.231  0.00  0.00    -0.272 NA
ATOM     41  C4  STI B   1       3.649  89.684  61.198  0.00  0.00     0.130 A 
ENDBRANCH  34  36
ENDBRANCH  28  30
ENDBRANCH   1  28
TORSDOF 7
ENDMDL
MODEL 7
REMARK VINA RESULT:   -10.442      3.510     12.161
REMARK INTER + INTRA:         -15.477
REMARK INTER:                 -15.070
REMARK INTRA:                  -0.407
REMARK UNBOUND:                -0.762
REMARK  7 active torsions:
REMARK  status: ('A' for Active; 'I' for Inactive)
REMARK    1  A    between atoms: C5_3  and  C7_7 
REMARK    2  A    between atoms: C9_11  and  N13_13 
REMARK    3  A    between atoms: N13_13  and  C14_14 
REMARK    4  A    between atoms: C16_18  and  N21_20 
REMARK       I    between atoms: N21_20  and  C22_21 
REMARK    5  A    between atoms: C22_21  and  C23_22 
REMARK    6  A    between atoms: C27_25  and  C46_28 
REMARK    7  A    between atoms: C46_28  and  N48_29 
ROOT
ATOM      1  C14 STI B   1      10.549  93.050  63.821  0.00  0.00     0.057 A 
ATOM      2  C19 STI B   1      11.692  92.975  64.736  0.00  0.00    -0.035 A 
ATOM      3  C18 STI B   1      12.718  93.976  64.630  0.00  0.00     0.011 A 
ATOM      4  C17 STI B   1      12.628  95.031  63.651  0.00  0.00     0.030 A 
ATOM      5  C16 STI B   1      11.523  95.117  62.759  0.00  0.00     0.037 A 
ATOM      6  C15 STI B   1      10.472  94.102  62.855  0.00  0.00     0.060 A 
ATOM      7  C20 STI B   1      11.857  91.879  65.816  0.00  0.00     0.050 C 
ENDROOT
BRANCH   5   8
ATOM      8  N21 STI B   1      11.513  96.210  61.817  0.00  0.00    -0.323 N 
ATOM      9  C22 STI B   1      12.406  96.477  60.798  0.00  0.00     0.256 C 
ATOM     10  O29 STI B   1      13.489  95.940  60.669  0.00  0.00    -0.267 OA
ATOM     11  H21 STI B   1      10.752  96.866  61.916  0.00  0.00     0.169 HD
BRANCH   9  12
ATOM     12  C23 STI B   1      12.053  97.504  59.774  0.00  0.00     0.032 A 
ATOM     13  C25 STI B   1      10.870  97.346  58.927  0.00  0.00     0.017 A 
ATOM     14  C26 STI B   1      10.563  98.342  57.934  0.00  0.00     0.010 A 
ATOM     15  C27 STI B   1      11.433  99.497  57.784  0.00  0.00    -0.033 A 
ATOM     16  C28 STI B   1      12.594  99.633  58.638  0.00  0.00     0.010 A 
ATOM     17  C29 STI B   1      12.903  98.661  59.613  0.00  0.00     0.017 A 
BRANCH  15  18
ATOM     18  C46 STI B   1      11.184 100.587  56.736  0.00  0.00     0.273 C 
BRANCH  18  19
ATOM     19  N48 STI B   1      12.061 100.605  55.528  0.00  0.00    -0.064 N 
ATOM     20  C53 STI B   1      13.504 100.443  55.914  0.00  0.00     0.263 C 
ATOM     21  C52 STI B   1      14.431 100.466  54.672  0.00  0.00     0.262 C 
ATOM     22  N51 STI B   1      14.020  99.392  53.677  0.00  0.00    -0.072 N 
ATOM     23  C54 STI B   1      14.871  99.358  52.476  0.00  0.00     0.269 C 
ATOM     24  C50 STI B   1      12.567  99.564  53.258  0.00  0.00     0.262 C 
ATOM     25  H51 STI B   1      14.103  98.498  54.139  0.00  0.00     0.279 HD
ATOM     26  C49 STI B   1      11.657  99.530  54.525  0.00  0.00     0.263 C 
ATOM     27  H48 STI B   1      11.956 101.504  55.080  0.00  0.00     0.280 HD
ENDBRANCH  18  19
ENDBRANCH  15  18
ENDBRANCH   9  12
ENDBRANCH   5   8
BRANCH   1  28
ATOM     28  N13 STI B   1       9.509  92.107  63.874  0.00  0.00    -0.188 N 
ATOM     29  H13 STI B   1       9.743  91.125  63.852  0.00  0.00     0.184 HD
BRANCH  28  30
ATOM     30  C9  STI B   1       8.164  92.476  63.956  0.00  0.00     0.727 A 
ATOM     31  N10 STI B   1       7.580  92.894  65.141  0.00  0.00    -0.075 NA
ATOM     32  C11 STI B   1       6.244  93.256  65.186  0.00  0.00     0.139 A 
ATOM     33  C12 STI B   1       5.447  93.207  64.014  0.00  0.00     0.053 A 
ATOM     34  C7  STI B   1       6.082  92.769  62.799  0.00  0.00     0.089 A 
ATOM     35  N8  STI B   1       7.418  92.420  62.818  0.00  0.00    -0.062 NA
BRANCH  34  36
ATOM     36  C5  STI B   1       5.367  92.669  61.483  0.00  0.00     0.011 A 
ATOM     37  C6  STI B   1       5.057  91.398  60.839  0.00  0.00     0.017 A 
ATOM     38  C1  STI B   1       4.363  91.359  59.571  0.00  0.00     0.020 A 
ATOM     39  C2  STI B   1       3.986  92.603  58.961  0.00  0.00     0.116 A 
ATOM     40  N3  STI B   1       4.288  93.816  59.589  0.00  0.00    -0.272 NA
ATOM     41  C4  STI B   1       4.955  93.887  60.808  0.00  0.00     0.130 A 
ENDBRANCH  34  36
ENDBRANCH  28  30
ENDBRANCH   1  28
TORSDOF 7
ENDMDL
MODEL 8
REMARK VINA RESULT:   -10.229      1.837     13.693
REMARK INTER + INTRA:         -15.177
REMARK INTER:                 -14.367
REMARK INTRA:                  -0.811
REMARK UNBOUND:                -0.762
REMARK  7 active torsions:
REMARK  status: ('A' for Active; 'I' for Inactive)
REMARK    1  A    between atoms: C5_3  and  C7_7 
REMARK    2  A    between atoms: C9_11  and  N13_13 
REMARK    3  A    between atoms: N13_13  and  C14_14 
REMARK    4  A    between atoms: C16_18  and  N21_20 
REMARK       I    between atoms: N21_20  and  C22_21 
REMARK    5  A    between atoms: C22_21  and  C23_22 
REMARK    6  A    between atoms: C27_25  and  C46_28 
REMARK    7  A    between atoms: C46_28  and  N48_29 
ROOT
ATOM      1  C14 STI B   1      11.308  94.639  63.664  0.00  0.00     0.057 A 
ATOM      2  C19 STI B   1      12.616  94.138  64.097  0.00  0.00    -0.035 A 
ATOM      3  C18 STI B   1      13.760  94.416  63.273  0.00  0.00     0.011 A 
ATOM      4  C17 STI B   1      13.630  95.168  62.050  0.00  0.00     0.030 A 
ATOM      5  C16 STI B   1      12.367  95.662  61.619  0.00  0.00     0.037 A 
ATOM      6  C15 STI B   1      11.193  95.384  62.449  0.00  0.00     0.060 A 
ATOM      7  C20 STI B   1      12.838  93.330  65.398  0.00  0.00     0.050 C 
ENDROOT
BRANCH   5   8
ATOM      8  N21 STI B   1      12.332  96.411  60.386  0.00  0.00    -0.323 N 
ATOM      9  C22 STI B   1      11.763  97.646  60.144  0.00  0.00     0.256 C 
ATOM     10  O29 STI B   1      10.996  98.213  60.897  0.00  0.00    -0.267 OA
ATOM     11  H21 STI B   1      12.782  95.973  59.595  0.00  0.00     0.169 HD
BRANCH   9  12
ATOM     12  C23 STI B   1      12.081  98.354  58.869  0.00  0.00     0.032 A 
ATOM     13  C25 STI B   1      13.443  98.807  58.580  0.00  0.00     0.017 A 
ATOM     14  C26 STI B   1      13.719  99.505  57.351  0.00  0.00     0.010 A 
ATOM     15  C27 STI B   1      12.640  99.752  56.410  0.00  0.00    -0.033 A 
ATOM     16  C28 STI B   1      11.303  99.289  56.717  0.00  0.00     0.010 A 
ATOM     17  C29 STI B   1      11.023  98.604  57.919  0.00  0.00     0.017 A 
BRANCH  15  18
ATOM     18  C46 STI B   1      12.851 100.506  55.092  0.00  0.00     0.273 C 
BRANCH  18  19
ATOM     19  N48 STI B   1      14.058 100.167  54.282  0.00  0.00    -0.064 N 
ATOM     20  C53 STI B   1      13.702 100.030  52.829  0.00  0.00     0.263 C 
ATOM     21  C52 STI B   1      14.943  99.672  51.971  0.00  0.00     0.262 C 
ATOM     22  N51 STI B   1      16.040 100.708  52.158  0.00  0.00    -0.072 N 
ATOM     23  C54 STI B   1      17.245 100.427  51.360  0.00  0.00     0.269 C 
ATOM     24  C50 STI B   1      16.427 100.835  53.625  0.00  0.00     0.262 C 
ATOM     25  H51 STI B   1      15.674 101.600  51.858  0.00  0.00     0.279 HD
ATOM     26  C49 STI B   1      15.163 101.203  54.461  0.00  0.00     0.263 C 
ATOM     27  H48 STI B   1      14.410  99.277  54.603  0.00  0.00     0.280 HD
ENDBRANCH  18  19
ENDBRANCH  15  18
ENDBRANCH   9  12
ENDBRANCH   5   8
BRANCH   1  28
ATOM     28  N13 STI B   1      10.150  94.408  64.425  0.00  0.00    -0.188 N 
ATOM     29  H13 STI B   1       9.823  95.136  65.044  0.00  0.00     0.184 HD
BRANCH  28  30
ATOM     30  C9  STI B   1       9.434  93.210  64.360  0.00  0.00     0.727 A 
ATOM     31  N10 STI B   1       8.923  92.716  63.170  0.00  0.00    -0.075 NA
ATOM     32  C11 STI B   1       8.222  91.522  63.140  0.00  0.00     0.139 A 
ATOM     33  C12 STI B   1       8.013  90.781  64.331  0.00  0.00     0.053 A 
ATOM     34  C7  STI B   1       8.555  91.321  65.550  0.00  0.00     0.089 A 
ATOM     35  N8  STI B   1       9.246  92.517  65.517  0.00  0.00    -0.062 NA
BRANCH  34  36
ATOM     36  C5  STI B   1       8.418  90.649  66.885  0.00  0.00     0.011 A 
ATOM     37  C6  STI B   1       9.461  90.682  67.905  0.00  0.00     0.017 A 
ATOM     38  C1  STI B   1       9.275  90.019  69.176  0.00  0.00     0.020 A 
ATOM     39  C2  STI B   1       8.038  89.329  69.412  0.00  0.00     0.116 A 
ATOM     40  N3  STI B   1       7.046  89.305  68.427  0.00  0.00    -0.272 NA
ATOM     41  C4  STI B   1       7.194  89.932  67.193  0.00  0.00     0.130 A 
ENDBRANCH  34  36
ENDBRANCH  28  30
ENDBRANCH   1  28
TORSDOF 7
ENDMDL
